resultados/Relatorios/ieee57/ieee57-report.txt
February 19, 2024


relatorio do sistema ieee57

solucao do fluxo de potencia via metodo do fluxo de potencia direto (Canizares, 1993)

opcoes de controle ativadas: Nenhum controle ativo!

opcoes de relatorio ativadas: RBAR 



vv relatorio de convergencia vv

 * * * * SISTEMA CONVERGENTE * * * * 

Ponto de Maximo Carregamento: 0.785542
Autovalores: [2.32486769e-04 1.25223356e-03 2.35778618e-03 3.82481088e-03
 4.40069456e-03 6.75936891e-03 5.36301092e-03 5.59630571e-03
 5.63069798e-03 7.56437669e-03 4.45220892e-03 6.36566151e-03
 5.97466387e-03 2.80164558e-03 3.48487599e-03 1.69359868e-03
 3.39711852e-03 1.38104925e-02 1.99575445e-02 2.06042125e-02
 2.16924099e-02 2.34281685e-02 5.22464805e-02 1.68479860e-01
 5.05032865e-02 2.51710495e-02 1.50502349e-02 8.76320118e-03
 2.48502944e-01 4.01969386e-01 2.28640238e-01 2.38806221e-01
 6.86219456e-02 5.43724029e-02 4.15754177e-02 3.40888062e-02
 1.87278519e-02 3.43248880e-02 4.11666794e-02 1.57398721e-02
 2.97277877e-02 9.21947829e-03 1.34168427e-02 3.09494305e-03
 7.17358799e-03 1.19114499e-02 1.39332120e-02 1.12959069e-02
 1.09874763e-02 5.78629425e-03 1.02833689e-02 1.06940673e-02
 7.82263932e-03 5.37677078e-03 3.88582078e-02 4.51563952e-02
 7.27790704e-04 3.40286751e-04 4.63453330e-03 3.03641905e-03
 5.29938593e-03 6.16944344e-03 9.51168494e-03 6.34400064e-03
 8.18467432e-04 9.70431808e-04 5.09831028e-03 1.65877028e-02
 2.40411571e-02 3.63382811e-02 3.80793887e-02 4.02527095e-02
 7.55974664e-02 2.60461477e-01 6.80696255e-02 3.02669093e-02
 1.84961330e-02 1.16861381e-02 3.17542457e-01 4.18434707e-01
 3.24931023e-01 3.30064076e-01 9.69336330e-02 7.75516012e-02
 6.35681169e-02 5.50002900e-02 3.43142129e-02 5.48241819e-02
 6.29273979e-02 2.27254223e-02 3.14720674e-02 9.93030737e-03
 2.89288403e-02 1.60538275e-02 1.68346245e-02 2.43248181e-02
 2.67688778e-02 2.07953424e-02 1.56635068e-02 5.66886764e-03
 1.02377999e-02 9.17329704e-03 5.09762065e-03 1.43874917e-03
 3.61633308e-02 4.05840397e-02]
Iteracoes: 7

vv relatorio de barras vv area 1 vv

|          BARRA           |         TENSAO       |        GERACAO      |         CARGA       |   SHUNT  |
| NUM |     NOME     |  T  |    MOD    |    ANG   |    MW    |   MVAr   |    MW    |   MVAr   |    MVAr  |
----------------------------------------------------------------------------------------------------------
|  1  | Kanawha---V1 |  2  |   1.040   |  +0.00   | 1794.879 | 383.579  |  98.204  |  30.354  |  0.000   |
----------------------------------------------------------------------------------------------------------
|  2  | Turner----V1 |  1  |   1.010   |  -7.17   |  -0.000  | 167.911  |  5.357   | 157.127  |  0.000   |
----------------------------------------------------------------------------------------------------------
|  3  | Logan-----V1 |  1  |   0.985   |  -30.20  |  40.000  | 329.998  |  73.207  |  37.496  |  0.000   |
----------------------------------------------------------------------------------------------------------
|  4  | Sprigg----V1 |  0  |   0.964   |  -36.65  |  0.000   |  0.000   |  0.000   |  0.000   |  0.000   |
----------------------------------------------------------------------------------------------------------
|  5  | Barra-5---V1 |  0  |   0.963   |  -45.49  |  -0.000  |  -0.000  |  23.212  |  7.142   |  0.000   |
----------------------------------------------------------------------------------------------------------
|  6  | Beaver-Ck-V1 |  1  |   0.980   |  -48.89  |  -0.001  | 111.139  | 133.915  |  3.571   |  0.000   |
----------------------------------------------------------------------------------------------------------
|  7  | Barra-7---V1 |  0  |   0.961   |  -51.34  |  0.000   |  0.000   |  0.000   |  0.000   |  0.000   |
----------------------------------------------------------------------------------------------------------
|  8  | Clinch-Rv-V1 |  1  |   1.005   |  -49.42  | 450.004  | 128.930  | 267.829  |  39.282  |  0.000   |
----------------------------------------------------------------------------------------------------------
|  9  | Saltville-V1 |  1  |   0.980   |  -53.05  |  -0.002  | 194.703  | 216.049  |  46.424  |  0.000   |
----------------------------------------------------------------------------------------------------------
| 10  | Barra-10--V1 |  0  |   0.954   |  -52.72  |  -0.000  |  -0.000  |  8.928   |  3.571   |  0.000   |
----------------------------------------------------------------------------------------------------------

|          BARRA           |         TENSAO       |        GERACAO      |         CARGA       |   SHUNT  |
| NUM |     NOME     |  T  |    MOD    |    ANG   |    MW    |   MVAr   |    MW    |   MVAr   |    MVAr  |
----------------------------------------------------------------------------------------------------------
| 11  | Tazewell--V1 |  0  |   0.923   |  -49.56  |  0.000   |  0.000   |  0.000   |  0.000   |  0.000   |
----------------------------------------------------------------------------------------------------------
| 12  | Glen-Lyn--V1 |  1  |   1.015   |  -48.97  | 309.999  | 595.286  | 673.145  |  42.853  |  0.000   |
----------------------------------------------------------------------------------------------------------
| 13  | Barra-13--V1 |  0  |   0.914   |  -44.76  |  -0.000  |  -0.000  |  32.140  |  4.107   |  0.000   |
----------------------------------------------------------------------------------------------------------
| 14  | Barra-14--V1 |  0  |   0.880   |  -40.47  |  -0.000  |  -0.000  |  18.748  |  9.463   |  0.000   |
----------------------------------------------------------------------------------------------------------
| 15  | Barra-15--V1 |  0  |   0.912   |  -31.29  |  -0.000  |  -0.000  |  39.282  |  8.928   |  0.000   |
----------------------------------------------------------------------------------------------------------
| 16  | Barra-16--V1 |  0  |   0.934   |  -38.29  |  -0.001  |  -0.000  |  76.778  |  5.357   |  0.000   |
----------------------------------------------------------------------------------------------------------
| 17  | Barra-17--V1 |  0  |   0.923   |  -20.98  |  -0.001  |  -0.000  |  74.992  |  14.284  |  0.000   |
----------------------------------------------------------------------------------------------------------
| 18  | Sprigg----V2 |  0  |   0.941   |  -45.58  |  -0.000  |  -0.000  |  48.566  |  17.498  |  8.853   |
----------------------------------------------------------------------------------------------------------
| 19  | Barra-19--V2 |  0  |   0.848   |  -49.17  |  -0.000  |  -0.000  |  5.892   |  1.071   |  0.000   |
----------------------------------------------------------------------------------------------------------
| 20  | Barra-20--V2 |  0  |   0.817   |  -49.96  |  -0.000  |  -0.000  |  4.107   |  1.786   |  0.000   |
----------------------------------------------------------------------------------------------------------

|          BARRA           |         TENSAO       |        GERACAO      |         CARGA       |   SHUNT  |
| NUM |     NOME     |  T  |    MOD    |    ANG   |    MW    |   MVAr   |    MW    |   MVAr   |    MVAr  |
----------------------------------------------------------------------------------------------------------
| 21  | Barra-21--V3 |  0  |   0.839   |  -50.05  |  0.000   |  0.000   |  0.000   |  0.000   |  0.000   |
----------------------------------------------------------------------------------------------------------
| 22  | Barra-22--V3 |  0  |   0.837   |  -49.98  |  0.000   |  0.000   |  0.000   |  0.000   |  0.000   |
----------------------------------------------------------------------------------------------------------
| 23  | Barra-23--V3 |  0  |   0.832   |  -50.31  |  -0.000  |  -0.000  |  11.249  |  3.750   |  0.000   |
----------------------------------------------------------------------------------------------------------
| 24  | Barra-24--V3 |  0  |   0.785   |  -54.23  |  0.000   |  -0.000  |  0.000   |  0.000   |  0.000   |
----------------------------------------------------------------------------------------------------------
| 25  | Barra-25--V4 |  0  |   0.612   |  -73.02  |  -0.000  |  -0.000  |  11.249  |  5.714   |  2.212   |
----------------------------------------------------------------------------------------------------------
| 26  | Barra-26--V5 |  0  |   0.768   |  -53.90  |  0.000   |  0.000   |  0.000   |  0.000   |  0.000   |
----------------------------------------------------------------------------------------------------------
| 27  | Barra-27--V5 |  0  |   0.868   |  -55.95  |  -0.000  |  -0.000  |  16.605  |  0.893   |  0.000   |
----------------------------------------------------------------------------------------------------------
| 28  | Barra-28--V5 |  0  |   0.918   |  -55.49  |  -0.000  |  -0.000  |  8.213   |  4.107   |  0.000   |
----------------------------------------------------------------------------------------------------------
| 29  | Barra-29--V5 |  0  |   0.957   |  -55.10  |  -0.000  |  -0.000  |  30.354  |  4.642   |  0.000   |
----------------------------------------------------------------------------------------------------------
| 30  | Barra-30--V4 |  0  |   0.549   |  -75.73  |  -0.000  |  -0.000  |  6.428   |  3.214   |  0.000   |
----------------------------------------------------------------------------------------------------------

|          BARRA           |         TENSAO       |        GERACAO      |         CARGA       |   SHUNT  |
| NUM |     NOME     |  T  |    MOD    |    ANG   |    MW    |   MVAr   |    MW    |   MVAr   |    MVAr  |
----------------------------------------------------------------------------------------------------------
| 31  | Barra-31--V4 |  0  |   0.464   |  -79.83  |  -0.000  |  -0.000  |  10.356  |  5.178   |  0.000   |
----------------------------------------------------------------------------------------------------------
| 32  | Barra-32--V4 |  0  |   0.536   |  -74.11  |  -0.000  |  -0.000  |  2.857   |  1.428   |  0.000   |
----------------------------------------------------------------------------------------------------------
| 33  | Barra-33--V4 |  0  |   0.528   |  -74.33  |  -0.000  |  -0.000  |  6.785   |  3.393   |  0.000   |
----------------------------------------------------------------------------------------------------------
| 34  | Barra-34--V3 |  0  |   0.691   |  -52.87  |  -0.000  |  -0.000  |  0.000   |  0.000   |  0.000   |
----------------------------------------------------------------------------------------------------------
| 35  | Barra-35--V3 |  0  |   0.719   |  -52.50  |  -0.000  |  -0.000  |  10.713  |  5.357   |  0.000   |
----------------------------------------------------------------------------------------------------------
| 36  | Barra-36--V3 |  0  |   0.750   |  -52.02  |  -0.000  |  -0.000  |  0.000   |  0.000   |  0.000   |
----------------------------------------------------------------------------------------------------------
| 37  | Barra-37--V3 |  0  |   0.775   |  -51.48  |  -0.000  |  0.000   |  0.000   |  0.000   |  0.000   |
----------------------------------------------------------------------------------------------------------
| 38  | Barra-38--V3 |  0  |   0.846   |  -49.33  |  -0.000  |  -0.000  |  24.997  |  12.499  |  0.000   |
----------------------------------------------------------------------------------------------------------
| 39  | Barra-39--V3 |  0  |   0.771   |  -51.68  |  0.000   |  -0.000  |  0.000   |  0.000   |  0.000   |
----------------------------------------------------------------------------------------------------------
| 40  | Barra-40--V3 |  0  |   0.747   |  -52.33  |  0.000   |  -0.000  |  0.000   |  0.000   |  0.000   |
----------------------------------------------------------------------------------------------------------

|          BARRA           |         TENSAO       |        GERACAO      |         CARGA       |   SHUNT  |
| NUM |     NOME     |  T  |    MOD    |    ANG   |    MW    |   MVAr   |    MW    |   MVAr   |    MVAr  |
----------------------------------------------------------------------------------------------------------
| 41  | Tazewell--V6 |  0  |   0.871   |  -57.95  |  -0.000  |  -0.000  |  11.249  |  5.357   |  0.000   |
----------------------------------------------------------------------------------------------------------
| 42  | Barra-42--V6 |  0  |   0.787   |  -60.40  |  -0.000  |  -0.000  |  12.677  |  7.856   |  0.000   |
----------------------------------------------------------------------------------------------------------
| 43  | Tazewell--V7 |  0  |   0.935   |  -51.92  |  -0.000  |  -0.000  |  3.571   |  1.786   |  0.000   |
----------------------------------------------------------------------------------------------------------
| 44  | Barra-44--V3 |  0  |   0.864   |  -46.01  |  -0.000  |  -0.000  |  21.426  |  3.214   |  0.000   |
----------------------------------------------------------------------------------------------------------
| 45  | Barra-45--V3 |  0  |   0.936   |  -37.86  |  0.000   |  0.000   |  0.000   |  0.000   |  0.000   |
----------------------------------------------------------------------------------------------------------
| 46  | Barra-46--V3 |  0  |   0.941   |  -44.82  |  0.000   |  0.000   |  0.000   |  0.000   |  0.000   |
----------------------------------------------------------------------------------------------------------
| 47  | Barra-47--V3 |  0  |   0.888   |  -48.56  |  -0.000  |  -0.000  |  53.030  |  20.712  |  0.000   |
----------------------------------------------------------------------------------------------------------
| 48  | Barra-48--V3 |  0  |   0.877   |  -49.04  |  0.000   |  0.000   |  0.000   |  0.000   |  0.000   |
----------------------------------------------------------------------------------------------------------
| 49  | Barra-49--V3 |  0  |   0.902   |  -51.08  |  -0.000  |  -0.000  |  32.140  |  15.177  |  0.000   |
----------------------------------------------------------------------------------------------------------
| 50  | Barra-50--V3 |  0  |   0.897   |  -53.89  |  -0.000  |  -0.000  |  37.496  |  18.748  |  0.000   |
----------------------------------------------------------------------------------------------------------

|          BARRA           |         TENSAO       |        GERACAO      |         CARGA       |   SHUNT  |
| NUM |     NOME     |  T  |    MOD    |    ANG   |    MW    |   MVAr   |    MW    |   MVAr   |    MVAr  |
----------------------------------------------------------------------------------------------------------
| 51  | Barra-51--V3 |  0  |   0.994   |  -54.64  |  -0.000  |  -0.000  |  32.140  |  9.463   |  0.000   |
----------------------------------------------------------------------------------------------------------
| 52  | Barra-52--V5 |  0  |   0.894   |  -57.87  |  -0.000  |  -0.000  |  8.749   |  3.928   |  0.000   |
----------------------------------------------------------------------------------------------------------
| 53  | Barra-53--V5 |  0  |   0.874   |  -59.05  |  -0.000  |  -0.000  |  35.711  |  17.855  |  4.813   |
----------------------------------------------------------------------------------------------------------
| 54  | Barra-54--V5 |  0  |   0.936   |  -57.60  |  -0.000  |  -0.000  |  7.321   |  2.500   |  0.000   |
----------------------------------------------------------------------------------------------------------
| 55  | Saltville-V5 |  0  |   1.016   |  -55.58  |  -0.000  |  -0.000  |  12.142  |  6.071   |  0.000   |
----------------------------------------------------------------------------------------------------------
| 56  | Barra-56--V6 |  0  |   0.772   |  -60.49  |  -0.000  |  -0.000  |  13.570  |  3.928   |  0.000   |
----------------------------------------------------------------------------------------------------------
| 57  | Barra-57--V6 |  0  |   0.753   |  -61.29  |  -0.000  |  -0.000  |  11.963  |  3.571   |  0.000   |
----------------------------------------------------------------------------------------------------------



fim do relatorio do sistema ieee57